62204
JMcorina  05141111163D 1   1.00000     0.00000 
CORINA 3.44 0023  09.01.2008
 13 12  0     0  0  0  0  0  0999 V2000
   -0.0184    1.5028    0.0103 C   0  0  0  0  0  0  0  0  0  0  0  0
    0.0021   -0.0041    0.0020 C   0  0  0  0  0  0  0  0  0  0  0  0
    1.1232    2.1827    0.0031 C   0  0  0  0  0  0  0  0  0  0  0  0
    2.4070    1.4646   -0.0131 C   0  0  0  0  0  0  0  0  0  0  0  0
    3.5486    2.1445   -0.0203 C   0  0  0  0  0  0  0  0  0  0  0  0
   -0.9609    2.0300    0.0176 H   0  0  0  0  0  0  0  0  0  0  0  0
   -1.0205   -0.3814    0.0098 H   0  0  0  0  0  0  0  0  0  0  0  0
    0.5123   -0.3556   -0.8948 H   0  0  0  0  0  0  0  0  0  0  0  0
    0.5293   -0.3651    0.8851 H   0  0  0  0  0  0  0  0  0  0  0  0
    1.1085    3.2626    0.0090 H   0  0  0  0  0  0  0  0  0  0  0  0
    2.4217    0.3847   -0.0190 H   0  0  0  0  0  0  0  0  0  0  0  0
    3.5339    3.2244   -0.0144 H   0  0  0  0  0  0  0  0  0  0  0  0
    4.4911    1.6173   -0.0321 H   0  0  0  0  0  0  0  0  0  0  0  0
  1  2  1  0  0  0  0
  1  3  2  0  0  0  0
  1  6  1  0  0  0  0
  2  7  1  0  0  0  0
  2  8  1  0  0  0  0
  2  9  1  0  0  0  0
  3  4  1  0  0  0  0
  3 10  1  0  0  0  0
  4  5  2  0  0  0  0
  4 11  1  0  0  0  0
  5 12  1  0  0  0  0
  5 13  1  0  0  0  0
M  END

$$$$
