1dls
BBcorina  08231809203D 1   1.00000     0.00000 
CORINA 4.1.0 0026  01.08.2017
 55 57  0  0  1  0  0  0  0  0999 V2000
   -0.6984    1.5583    1.2133 N   0  0  0  0  0  0  0  0  0  0  0  0
   -1.2410    2.3616    1.1793 H   0  0  0  0  0  0  0  0  0  0  0  0
   -0.0127    1.0858    0.0080 C   0  0  0  0  0  0  0  0  0  0  0  0
    0.0021   -0.0041    0.0020 H   0  0  0  0  0  0  0  0  0  0  0  0
   -0.5754    0.8767    2.3695 C   0  0  0  0  0  0  0  0  0  0  0  0
    0.1047   -0.1303    2.4122 O   0  0  0  0  0  0  0  0  0  0  0  0
  -10.9019    2.0960    4.1409 N   0  0  0  0  0  0  0  0  0  0  0  0
  -11.1813    1.9907    3.2180 H   0  0  0  0  0  0  0  0  0  0  0  0
  -11.5409    1.9657    4.8590 H   0  0  0  0  0  0  0  0  0  0  0  0
   -6.6032    3.0999    2.5846 N   0  0  0  0  0  0  0  0  0  0  0  0
   -5.6785    3.3353    2.7587 H   0  0  0  0  0  0  0  0  0  0  0  0
   -6.9117    2.9880    1.6718 H   0  0  0  0  0  0  0  0  0  0  0  0
   -0.7527    1.5927   -1.2315 C   0  0  0  0  0  0  0  0  0  0  0  0
   -0.8452    2.6775   -1.1811 H   0  0  0  0  0  0  0  0  0  0  0  0
   -0.1944    1.3168   -2.1261 H   0  0  0  0  0  0  0  0  0  0  0  0
   -2.1465    0.9639   -1.2860 C   0  0  0  0  0  0  0  0  0  0  0  0
   -2.0540   -0.1210   -1.3364 H   0  0  0  0  0  0  0  0  0  0  0  0
   -2.7048    1.2398   -0.3914 H   0  0  0  0  0  0  0  0  0  0  0  0
   -2.8753    1.4631   -2.5069 C   0  0  0  0  0  0  0  0  0  0  0  0
   -2.3354    2.2419   -3.2565 O   0  0  0  0  0  0  0  0  0  0  0  0
   -4.1244    1.0426   -2.7616 O   0  0  0  0  0  0  0  0  0  0  0  0
   -4.5512    1.3905   -3.5565 H   0  0  0  0  0  0  0  0  0  0  0  0
   -3.0802    1.9536    8.2640 C   0  0  0  0  0  0  0  0  0  0  0  0
   -2.2250    2.3351    8.8218 H   0  0  0  0  0  0  0  0  0  0  0  0
   -3.9860    2.0785    8.8573 H   0  0  0  0  0  0  0  0  0  0  0  0
   -2.9304    0.8958    8.0478 H   0  0  0  0  0  0  0  0  0  0  0  0
   -9.2512    2.5658    5.6987 N   0  0  0  0  0  0  0  0  0  0  0  0
    1.7955    2.3025    0.9035 O   0  0  0  0  0  0  0  0  0  0  0  0
   -9.5936    2.4318    4.4328 C   0  0  0  0  0  0  0  0  0  0  0  0
    2.2223    1.2999   -1.0190 O   0  0  0  0  0  0  0  0  0  0  0  0
    3.1199    1.6576   -0.9818 H   0  0  0  0  0  0  0  0  0  0  0  0
   -8.7471    2.6021    3.4222 N   0  0  0  0  0  0  0  0  0  0  0  0
   -7.4786    2.9244    3.6338 C   0  0  0  0  0  0  0  0  0  0  0  0
   -7.0402    3.0869    5.0211 C   0  0  0  0  0  0  0  0  0  0  0  0
   -5.7891    3.4093    5.3334 N   0  0  0  0  0  0  0  0  0  0  0  0
   -5.4501    3.5428    6.5980 C   0  0  0  0  0  0  0  0  0  0  0  0
   -6.3885    3.3438    7.6102 C   0  0  0  0  0  0  0  0  0  0  0  0
   -6.0909    3.4531    8.6426 H   0  0  0  0  0  0  0  0  0  0  0  0
   -7.9993    2.8892    6.0456 C   0  0  0  0  0  0  0  0  0  0  0  0
   -7.6337    3.0297    7.3222 N   0  0  0  0  0  0  0  0  0  0  0  0
   -4.0326    3.9083    6.9560 C   0  0  0  0  0  0  0  0  0  0  0  0
   -4.0185    4.3977    7.9298 H   0  0  0  0  0  0  0  0  0  0  0  0
   -3.6309    4.5862    6.2028 H   0  0  0  0  0  0  0  0  0  0  0  0
   -3.2136    2.6947    7.0073 N   0  0  0  0  0  0  0  0  0  0  0  0
   -1.2659    1.3525    3.5833 C   0  0  0  0  0  0  0  0  0  0  0  0
   -1.1393    0.6466    4.7833 C   0  0  0  0  0  0  0  0  0  0  0  0
   -0.5353   -0.2478    4.8232 H   0  0  0  0  0  0  0  0  0  0  0  0
   -1.7847    1.0929    5.9137 C   0  0  0  0  0  0  0  0  0  0  0  0
   -1.6873    0.5481    6.8411 H   0  0  0  0  0  0  0  0  0  0  0  0
   -2.5627    2.2463    5.8633 C   0  0  0  0  0  0  0  0  0  0  0  0
   -2.6907    2.9515    4.6698 C   0  0  0  0  0  0  0  0  0  0  0  0
   -3.2950    3.8459    4.6338 H   0  0  0  0  0  0  0  0  0  0  0  0
   -2.0436    2.5132    3.5372 C   0  0  0  0  0  0  0  0  0  0  0  0
   -2.1397    3.0631    2.6126 H   0  0  0  0  0  0  0  0  0  0  0  0
    1.4011    1.6074   -0.0027 C   0  0  0  0  0  0  0  0  0  0  0  0
  1  2  1  0  0  0  0
  1  3  1  0  0  0  0
  1  5  1  0  0  0  0
  3  4  1  0  0  0  0
  3 13  1  0  0  0  0
  3 55  1  0  0  0  0
  5  6  2  0  0  0  0
  5 45  1  0  0  0  0
  7  8  1  0  0  0  0
  7  9  1  0  0  0  0
  7 29  1  0  0  0  0
 10 11  1  0  0  0  0
 10 12  1  0  0  0  0
 10 33  1  0  0  0  0
 13 14  1  0  0  0  0
 13 15  1  0  0  0  0
 13 16  1  0  0  0  0
 16 17  1  0  0  0  0
 16 18  1  0  0  0  0
 16 19  1  0  0  0  0
 19 20  2  0  0  0  0
 19 21  1  0  0  0  0
 21 22  1  0  0  0  0
 23 24  1  0  0  0  0
 23 25  1  0  0  0  0
 23 26  1  0  0  0  0
 23 44  1  0  0  0  0
 27 29  1  0  0  0  0
 27 39  2  0  0  0  0
 28 55  2  0  0  0  0
 29 32  2  0  0  0  0
 30 31  1  0  0  0  0
 30 55  1  0  0  0  0
 32 33  1  0  0  0  0
 33 34  2  0  0  0  0
 34 35  1  0  0  0  0
 34 39  1  0  0  0  0
 35 36  2  0  0  0  0
 36 37  1  0  0  0  0
 36 41  1  0  0  0  0
 37 38  1  0  0  0  0
 37 40  2  0  0  0  0
 39 40  1  0  0  0  0
 41 42  1  0  0  0  0
 41 43  1  0  0  0  0
 41 44  1  0  0  0  0
 44 50  1  0  0  0  0
 45 46  1  0  0  0  0
 45 53  2  0  0  0  0
 46 47  1  0  0  0  0
 46 48  2  0  0  0  0
 48 49  1  0  0  0  0
 48 50  1  0  0  0  0
 50 51  2  0  0  0  0
 51 52  1  0  0  0  0
 51 53  1  0  0  0  0
 53 54  1  0  0  0  0
M  END
$$$$
