1dls
  MOE2016           3D

 55 57  0  0  1  0  0  0  0  0999 V2000
   31.4290   20.1380   -1.0010 N   0  0  0  0  0  0  0  0  0  0  0  0
   30.6766   19.5281   -1.2875 H   0  0  0  0  0  0  0  0  0  0  0  0
   31.3720   21.4730   -1.6090 C   0  0  3  0  0  0  0  0  0  0  0  0
   32.0448   22.0263   -0.9538 H   0  0  0  0  0  0  0  0  0  0  0  0
   32.2810   19.5740   -0.1440 C   0  0  0  0  0  0  0  0  0  0  0  0
   33.3050   20.1730    0.1990 O   0  0  0  0  0  0  0  0  0  0  0  0
   27.0740   12.9410   -5.8030 N   0  0  0  0  0  0  0  0  0  0  0  0
   26.1205   12.6813   -6.0115 H   0  0  0  0  0  0  0  0  0  0  0  0
   27.7247   13.1195   -6.5546 H   0  0  0  0  0  0  0  0  0  0  0  0
   26.1020   12.7940   -1.3680 N   0  0  0  0  0  0  0  0  0  0  0  0
   26.3562   12.8859   -0.3948 H   0  0  0  0  0  0  0  0  0  0  0  0
   25.1428   12.6082   -1.6240 H   0  0  0  0  0  0  0  0  0  0  0  0
   31.7650   21.4710   -3.0690 C   0  0  0  0  0  0  0  0  0  0  0  0
   30.9155   21.8033   -3.6657 H   0  0  0  0  0  0  0  0  0  0  0  0
   32.0400   20.4575   -3.3612 H   0  0  0  0  0  0  0  0  0  0  0  0
   32.9250   22.3830   -3.3220 C   0  0  0  0  0  0  0  0  0  0  0  0
   33.5085   22.5159   -2.4110 H   0  0  0  0  0  0  0  0  0  0  0  0
   32.5747   23.3533   -3.6739 H   0  0  0  0  0  0  0  0  0  0  0  0
   33.7310   21.7300   -4.3510 C   0  0  0  0  0  0  0  0  0  0  0  0
   34.6410   20.7890   -4.2250 O   0  0  0  0  0  0  0  0  0  0  0  0
   33.4780   22.0370   -5.6080 O   0  0  0  0  0  0  0  0  0  0  0  0
   33.9833   21.5411   -6.2564 H   0  0  0  0  0  0  0  0  0  0  0  0
   32.6640   13.5830    2.2650 C   0  0  0  0  0  0  0  0  0  0  0  0
   32.5007   12.5086    2.3493 H   0  0  0  0  0  0  0  0  0  0  0  0
   32.4173   14.0634    3.2118 H   0  0  0  0  0  0  0  0  0  0  0  0
   33.7094   13.7737    2.0223 H   0  0  0  0  0  0  0  0  0  0  0  0
   28.7910   13.1620   -4.3390 N   0  0  0  0  0  0  0  0  0  0  0  0
   29.8190   23.3160   -1.5280 O   0  0  0  0  0  0  0  0  0  0  0  0
   27.4620   13.0450   -4.5730 C   0  0  0  0  0  0  0  0  0  0  0  0
   29.1710   21.2250   -2.0320 O   0  0  0  0  0  0  0  0  0  0  0  0
   28.2853   21.5465   -2.2158 H   0  0  0  0  0  0  0  0  0  0  0  0
   26.6310   12.8170   -3.5700 N   0  0  0  0  0  0  0  0  0  0  0  0
   27.0330   12.9180   -2.3150 C   0  0  0  0  0  0  0  0  0  0  0  0
   28.3900   13.1800   -1.9720 C   0  0  0  0  0  0  0  0  0  0  0  0
   28.8500   13.2490   -0.7170 N   0  0  0  0  0  0  0  0  0  0  0  0
   30.1500   13.3100   -0.5390 C   0  0  0  0  0  0  0  0  0  0  0  0
   31.0420   13.4540   -1.6180 C   0  0  0  0  0  0  0  0  0  0  0  0
   32.0853   13.6678   -1.4385 H   0  0  0  0  0  0  0  0  0  0  0  0
   29.2990   13.2070   -3.0570 C   0  0  0  0  0  0  0  0  0  0  0  0
   30.5830   13.3230   -2.8720 N   0  0  0  0  0  0  0  0  0  0  0  0
   30.6000   13.4220    0.9150 C   0  0  0  0  0  0  0  0  0  0  0  0
   30.7097   12.4058    1.2938 H   0  0  0  0  0  0  0  0  0  0  0  0
   29.8014   13.9278    1.4577 H   0  0  0  0  0  0  0  0  0  0  0  0
   31.8210   14.1180    1.2190 N   0  0  0  0  0  0  0  0  0  0  0  0
   32.1470   18.1710    0.2630 C   0  0  0  0  0  0  0  0  0  0  0  0
   33.3050   17.4490    0.6560 C   0  0  0  0  0  0  0  0  0  0  0  0
   34.2802   17.9130    0.6580 H   0  0  0  0  0  0  0  0  0  0  0  0
   33.1370   16.1230    1.0380 C   0  0  0  0  0  0  0  0  0  0  0  0
   33.9932   15.5728    1.3994 H   0  0  0  0  0  0  0  0  0  0  0  0
   31.8970   15.4750    0.9710 C   0  0  0  0  0  0  0  0  0  0  0  0
   30.7820   16.1830    0.5000 C   0  0  0  0  0  0  0  0  0  0  0  0
   29.8316   15.6826    0.3873 H   0  0  0  0  0  0  0  0  0  0  0  0
   30.9030   17.5400    0.1760 C   0  0  0  0  0  0  0  0  0  0  0  0
   30.0350   18.0989   -0.1411 H   0  0  0  0  0  0  0  0  0  0  0  0
   29.9790   22.0920   -1.6800 C   0  0  0  0  0  0  0  0  0  0  0  0
  1  2  1  0  0  0  0
  1  3  1  0  0  0  0
  1  5  1  0  0  0  0
  3  4  1  0  0  0  0
  3 13  1  0  0  0  0
  3 55  1  0  0  0  0
  5  6  2  0  0  0  0
  5 45  1  0  0  0  0
  7  8  1  0  0  0  0
  7  9  1  0  0  0  0
  7 29  1  0  0  0  0
 10 11  1  0  0  0  0
 10 12  1  0  0  0  0
 10 33  1  0  0  0  0
 13 14  1  0  0  0  0
 13 15  1  0  0  0  0
 13 16  1  0  0  0  0
 16 17  1  0  0  0  0
 16 18  1  0  0  0  0
 16 19  1  0  0  0  0
 19 20  2  0  0  0  0
 19 21  1  0  0  0  0
 21 22  1  0  0  0  0
 23 24  1  0  0  0  0
 23 25  1  0  0  0  0
 23 26  1  0  0  0  0
 23 44  1  0  0  0  0
 27 29  1  0  0  0  0
 27 39  2  0  0  0  0
 28 55  2  0  0  0  0
 29 32  2  0  0  0  0
 30 31  1  0  0  0  0
 30 55  1  0  0  0  0
 32 33  1  0  0  0  0
 33 34  2  0  0  0  0
 34 35  1  0  0  0  0
 34 39  1  0  0  0  0
 35 36  2  0  0  0  0
 36 37  1  0  0  0  0
 36 41  1  0  0  0  0
 37 38  1  0  0  0  0
 37 40  2  0  0  0  0
 39 40  1  0  0  0  0
 41 42  1  0  0  0  0
 41 43  1  0  0  0  0
 41 44  1  0  0  0  0
 44 50  1  0  0  0  0
 45 46  1  0  0  0  0
 45 53  2  0  0  0  0
 46 47  1  0  0  0  0
 46 48  2  0  0  0  0
 48 49  1  0  0  0  0
 48 50  1  0  0  0  0
 50 51  2  0  0  0  0
 51 52  1  0  0  0  0
 51 53  1  0  0  0  0
 53 54  1  0  0  0  0
M  END
$$$$
