
BBcorina_a03042111283D 1   1.00000     0.00000 
CORINA 4.3.0 0026  30.10.2019
 46 49  0  0  0  0  0  0  0  0999 V2000
   -0.0809    3.8529    0.0226 C   0  0  0  1  0  0  0  0  0  0  0  0
   -1.2683    3.1280    0.0301 C   0  0  0  1  0  0  0  0  0  0  0  0
   -1.2289    1.7492    0.0174 C   0  0  0  1  0  0  0  0  0  0  0  0
   -0.0126    1.0758    0.0080 C   0  0  0  1  0  0  0  0  0  0  0  0
    1.1641    1.7697    0.0004 C   0  0  0  1  0  0  0  0  0  0  0  0
    1.1464    3.1659    0.0076 C   0  0  0  1  0  0  0  0  0  0  0  0
    1.5636    5.3849    0.0149 C   0  0  0  1  0  0  0  0  0  0  0  0
    0.2072    5.1993    0.0267 N   0  0  0  1  0  0  0  0  0  0  0  0
    2.1876    4.1969    0.0031 C   0  0  0  1  0  0  0  0  0  0  0  0
    3.6769    3.9668   -0.0110 C   0  0  0  1  0  0  0  0  0  0  0  0
   -2.3828    1.0466    0.0195 F   0  0  0  1  0  0  0  0  0  0  0  0
    4.1121    3.6604   -1.3802 N   0  0  0  1  0  0  0  0  0  0  0  0
    3.4016    2.4869   -1.9087 C   0  0  0  1  0  0  0  0  0  0  0  0
    3.9269    2.1677   -3.3109 C   0  0  0  1  0  0  0  0  0  0  0  0
    3.7695    3.3176   -4.1466 O   0  0  0  1  0  0  0  0  0  0  0  0
    4.4492    4.4788   -3.6620 C   0  0  0  1  0  0  0  0  0  0  0  0
    3.9292    4.8214   -2.2634 C   0  0  0  1  0  0  0  0  0  0  0  0
    3.1362    0.9970   -3.8985 C   0  0  0  1  0  0  0  0  0  0  0  0
    3.6985    0.6274   -5.1591 O   0  0  0  1  0  0  0  0  0  0  0  0
    3.1091   -0.4041   -5.8190 C   0  0  0  1  0  0  0  0  0  0  0  0
    3.6034   -0.8157   -7.0482 C   0  0  0  1  0  0  0  0  0  0  0  0
    3.0025   -1.8645   -7.7170 C   0  0  0  1  0  0  0  0  0  0  0  0
    1.9093   -2.5039   -7.1622 C   0  0  0  1  0  0  0  0  0  0  0  0
    1.4150   -2.0959   -5.9371 C   0  0  0  1  0  0  0  0  0  0  0  0
    2.0156   -1.0511   -5.2619 C   0  0  0  1  0  0  0  0  0  0  0  0
   -2.2263    3.6477    0.0460 H   0  0  0  1  0  0  0  0  0  0  0  0
    0.0022   -0.0141    0.0067 H   0  0  0  1  0  0  0  0  0  0  0  0
    2.1139    1.2351   -0.0112 H   0  0  0  1  0  0  0  0  0  0  0  0
    2.0627    6.3539    0.0151 H   0  0  0  1  0  0  0  0  0  0  0  0
   -0.5205    5.9836    0.0375 H   0  0  0  1  0  0  0  0  0  0  0  0
    3.9214    3.1302    0.6436 H   0  0  0  1  0  0  0  0  0  0  0  0
    4.1864    4.8643    0.3398 H   0  0  0  1  0  0  0  0  0  0  0  0
    2.3339    2.7001   -1.9596 H   0  0  0  1  0  0  0  0  0  0  0  0
    3.5712    1.6328   -1.2531 H   0  0  0  1  0  0  0  0  0  0  0  0
    4.9782    1.8882   -3.2418 H   0  0  0  1  0  0  0  0  0  0  0  0
    4.2641    5.3163   -4.3346 H   0  0  0  1  0  0  0  0  0  0  0  0
    5.5199    4.2805   -3.6139 H   0  0  0  1  0  0  0  0  0  0  0  0
    4.4840    5.6717   -1.8668 H   0  0  0  1  0  0  0  0  0  0  0  0
    2.8700    5.0725   -2.3201 H   0  0  0  1  0  0  0  0  0  0  0  0
    2.0968    1.2942   -4.0376 H   0  0  0  1  0  0  0  0  0  0  0  0
    3.1838    0.1479   -3.2166 H   0  0  0  1  0  0  0  0  0  0  0  0
    4.4652   -0.3119   -7.4859 H   0  0  0  1  0  0  0  0  0  0  0  0
    3.3905   -2.1882   -8.6828 H   0  0  0  1  0  0  0  0  0  0  0  0
    1.4363   -3.3311   -7.6916 H   0  0  0  1  0  0  0  0  0  0  0  0
    0.5507   -2.5991   -5.5037 H   0  0  0  1  0  0  0  0  0  0  0  0
    1.6307   -0.7353   -4.2923 H   0  0  0  1  0  0  0  0  0  0  0  0
  1  2  1  0  0  0  0
  1  6  2  0  0  0  0
  1  8  1  0  0  0  0
  2  3  2  0  0  0  0
  2 26  1  0  0  0  0
  3  4  1  0  0  0  0
  3 11  1  0  0  0  0
  4  5  2  0  0  0  0
  4 27  1  0  0  0  0
  5  6  1  0  0  0  0
  5 28  1  0  0  0  0
  6  9  1  0  0  0  0
  7  8  1  0  0  0  0
  7  9  2  0  0  0  0
  7 29  1  0  0  0  0
  8 30  1  0  0  0  0
  9 10  1  0  0  0  0
 10 12  1  0  0  0  0
 10 31  1  0  0  0  0
 10 32  1  0  0  0  0
 12 13  1  0  0  0  0
 12 17  1  0  0  0  0
 13 14  1  0  0  0  0
 13 33  1  0  0  0  0
 13 34  1  0  0  0  0
 14 15  1  0  0  0  0
 14 18  1  0  0  0  0
 14 35  1  0  0  0  0
 15 16  1  0  0  0  0
 16 17  1  0  0  0  0
 16 36  1  0  0  0  0
 16 37  1  0  0  0  0
 17 38  1  0  0  0  0
 17 39  1  0  0  0  0
 18 19  1  0  0  0  0
 18 40  1  0  0  0  0
 18 41  1  0  0  0  0
 19 20  1  0  0  0  0
 20 21  1  0  0  0  0
 20 25  2  0  0  0  0
 21 22  2  0  0  0  0
 21 42  1  0  0  0  0
 22 23  1  0  0  0  0
 22 43  1  0  0  0  0
 23 24  2  0  0  0  0
 23 44  1  0  0  0  0
 24 25  1  0  0  0  0
 24 45  1  0  0  0  0
 25 46  1  0  0  0  0
M  END
$$$$

BBcorina_a03042111283D 1   1.00000     0.00000 
CORINA 4.3.0 0026  30.10.2019
 45 48  0  0  0  0  0  0  0  0999 V2000
   -3.7790   13.4300   -1.1498 C   0  0  0  1  0  0  0  0  0  0  0  0
   -3.7574   14.2777   -2.2528 C   0  0  0  1  0  0  0  0  0  0  0  0
   -3.8523   13.7513   -3.5222 C   0  0  0  1  0  0  0  0  0  0  0  0
   -3.9695   12.3812   -3.7136 C   0  0  0  1  0  0  0  0  0  0  0  0
   -3.9927   11.5306   -2.6447 C   0  0  0  1  0  0  0  0  0  0  0  0
   -3.8915   12.0421   -1.3494 C   0  0  0  1  0  0  0  0  0  0  0  0
   -3.7727   12.4438    0.8692 C   0  0  0  1  0  0  0  0  0  0  0  0
   -3.7051   13.6404    0.2089 N   0  0  0  1  0  0  0  0  0  0  0  0
   -3.8898   11.4398   -0.0141 C   0  0  0  1  0  0  0  0  0  0  0  0
   -3.9934    9.9710    0.3069 C   0  0  0  1  0  0  0  0  0  0  0  0
   -2.6824    9.3353    0.1200 N   0  0  0  1  0  0  0  0  0  0  0  0
   -2.7919    7.8710    0.1917 C   0  0  0  1  0  0  0  0  0  0  0  0
   -1.3982    7.2529    0.0520 C   0  0  0  1  0  0  0  0  0  0  0  0
   -0.8072    7.6923   -1.1740 O   0  0  0  1  0  0  0  0  0  0  0  0
   -0.6856    9.1135   -1.2777 C   0  0  0  1  0  0  0  0  0  0  0  0
   -2.0721    9.7503   -1.1515 C   0  0  0  1  0  0  0  0  0  0  0  0
   -1.5141    5.7274    0.0454 C   0  0  0  1  0  0  0  0  0  0  0  0
   -0.2069    5.1504    0.0303 O   0  0  0  1  0  0  0  0  0  0  0  0
   -0.1316    3.7957    0.0227 C   0  0  0  1  0  0  0  0  0  0  0  0
   -1.2428    3.0779    0.0300 N   0  0  0  1  0  0  0  0  0  0  0  0
   -1.2146    1.7582    0.0173 C   0  0  0  1  0  0  0  0  0  0  0  0
   -0.0126    1.0758    0.0080 C   0  0  0  1  0  0  0  0  0  0  0  0
    1.1749    1.7933    0.0005 C   0  0  0  1  0  0  0  0  0  0  0  0
    1.1111    3.1763    0.0080 C   0  0  0  1  0  0  0  0  0  0  0  0
   -2.8385    0.7893    0.0203 Br  0  0  0  1  0  0  0  0  0  0  0  0
   -3.6657   15.3548   -2.1129 H   0  0  0  1  0  0  0  0  0  0  0  0
   -3.8352   14.4171   -4.3851 H   0  0  0  1  0  0  0  0  0  0  0  0
   -4.0436   11.9810   -4.7247 H   0  0  0  1  0  0  0  0  0  0  0  0
   -4.0899   10.4565   -2.8025 H   0  0  0  1  0  0  0  0  0  0  0  0
   -3.7368   12.3237    1.9520 H   0  0  0  1  0  0  0  0  0  0  0  0
   -3.6091   14.5971    0.6785 H   0  0  0  1  0  0  0  0  0  0  0  0
   -4.7212    9.5046   -0.3571 H   0  0  0  1  0  0  0  0  0  0  0  0
   -4.3130    9.8470    1.3416 H   0  0  0  1  0  0  0  0  0  0  0  0
   -3.4313    7.5137   -0.6155 H   0  0  0  1  0  0  0  0  0  0  0  0
   -3.2228    7.5846    1.1511 H   0  0  0  1  0  0  0  0  0  0  0  0
   -0.7867    7.5595    0.9006 H   0  0  0  1  0  0  0  0  0  0  0  0
   -0.2528    9.3723   -2.2440 H   0  0  0  1  0  0  0  0  0  0  0  0
   -0.0414    9.4829   -0.4798 H   0  0  0  1  0  0  0  0  0  0  0  0
   -1.9775   10.8360   -1.1728 H   0  0  0  1  0  0  0  0  0  0  0  0
   -2.6998    9.4234   -1.9805 H   0  0  0  1  0  0  0  0  0  0  0  0
   -2.0621    5.4086   -0.8413 H   0  0  0  1  0  0  0  0  0  0  0  0
   -2.0455    5.3997    0.9389 H   0  0  0  1  0  0  0  0  0  0  0  0
    0.0022   -0.0141    0.0066 H   0  0  0  1  0  0  0  0  0  0  0  0
    2.1363    1.2798   -0.0110 H   0  0  0  1  0  0  0  0  0  0  0  0
    2.0244    3.7712    0.0024 H   0  0  0  1  0  0  0  0  0  0  0  0
  1  2  1  0  0  0  0
  1  6  2  0  0  0  0
  1  8  1  0  0  0  0
  2  3  2  0  0  0  0
  2 26  1  0  0  0  0
  3  4  1  0  0  0  0
  3 27  1  0  0  0  0
  4  5  2  0  0  0  0
  4 28  1  0  0  0  0
  5  6  1  0  0  0  0
  5 29  1  0  0  0  0
  6  9  1  0  0  0  0
  7  8  1  0  0  0  0
  7  9  2  0  0  0  0
  7 30  1  0  0  0  0
  8 31  1  0  0  0  0
  9 10  1  0  0  0  0
 10 11  1  0  0  0  0
 10 32  1  0  0  0  0
 10 33  1  0  0  0  0
 11 12  1  0  0  0  0
 11 16  1  0  0  0  0
 12 13  1  0  0  0  0
 12 34  1  0  0  0  0
 12 35  1  0  0  0  0
 13 14  1  0  0  0  0
 13 17  1  0  0  0  0
 13 36  1  0  0  0  0
 14 15  1  0  0  0  0
 15 16  1  0  0  0  0
 15 37  1  0  0  0  0
 15 38  1  0  0  0  0
 16 39  1  0  0  0  0
 16 40  1  0  0  0  0
 17 18  1  0  0  0  0
 17 41  1  0  0  0  0
 17 42  1  0  0  0  0
 18 19  1  0  0  0  0
 19 20  1  0  0  0  0
 19 24  2  0  0  0  0
 20 21  2  0  0  0  0
 21 22  1  0  0  0  0
 21 25  1  0  0  0  0
 22 23  2  0  0  0  0
 22 43  1  0  0  0  0
 23 24  1  0  0  0  0
 23 44  1  0  0  0  0
 24 45  1  0  0  0  0
M  END
$$$$

BBcorina_a03042111283D 1   1.00000     0.00000 
CORINA 4.3.0 0026  30.10.2019
 45 48  0  0  0  0  0  0  0  0999 V2000
    1.0774    1.5550    5.5091 C   0  0  0  1  0  0  0  0  0  0  0  0
   -0.6447    1.5606    3.6909 C   0  0  0  1  0  0  0  0  0  0  0  0
    0.0356    1.1540    2.4540 N   0  0  0  1  0  0  0  0  0  0  0  0
   -0.7244    1.5805    1.2700 C   0  0  0  1  0  0  0  0  0  0  0  0
   -0.0127    1.0858    0.0080 C   0  0  0  1  0  0  0  0  0  0  0  0
    1.3287    1.5817   -0.0021 O   0  0  0  1  0  0  0  0  0  0  0  0
    2.0978    1.1848    1.1364 C   0  0  0  1  0  0  0  0  0  0  0  0
    1.4075    1.6805    2.4098 C   0  0  0  1  0  0  0  0  0  0  0  0
   -0.7544    1.5935   -1.2301 C   0  0  0  1  0  0  0  0  0  0  0  0
   -0.1574    1.0386   -2.4039 O   0  0  0  1  0  0  0  0  0  0  0  0
   -0.7003    1.3909   -3.5964 C   0  0  0  1  0  0  0  0  0  0  0  0
   -1.7387    2.2094   -3.6270 N   0  0  0  1  0  0  0  0  0  0  0  0
   -2.2941    2.5812   -4.7657 C   0  0  0  1  0  0  0  0  0  0  0  0
   -1.8117    2.1153   -5.9738 C   0  0  0  1  0  0  0  0  0  0  0  0
   -0.7264    1.2504   -5.9831 C   0  0  0  1  0  0  0  0  0  0  0  0
   -0.1636    0.8839   -4.7729 C   0  0  0  1  0  0  0  0  0  0  0  0
   -3.7729    3.7597   -4.7425 Br  0  0  0  1  0  0  0  0  0  0  0  0
    1.7058    0.9765    6.5904 C   0  0  0  1  0  0  0  0  0  0  0  0
    1.2857   -0.2674    7.0494 C   0  0  0  1  0  0  0  0  0  0  0  0
    0.2210   -0.9183    6.3996 C   0  0  0  1  0  0  0  0  0  0  0  0
   -0.4050   -0.3114    5.3094 C   0  0  0  1  0  0  0  0  0  0  0  0
    0.0276    0.9087    4.8716 C   0  0  0  1  0  0  0  0  0  0  0  0
    1.6965   -1.0869    8.0768 N   0  0  0  1  0  0  0  0  0  0  0  0
    0.9346   -2.2233    8.0983 C   0  0  0  1  0  0  0  0  0  0  0  0
    0.0254   -2.1836    7.1114 C   0  0  0  1  0  0  0  0  0  0  0  0
    1.4081    2.5299    5.1509 H   0  0  0  1  0  0  0  0  0  0  0  0
   -1.6887    1.2499    3.6502 H   0  0  0  1  0  0  0  0  0  0  0  0
   -0.5914    2.6443    3.7953 H   0  0  0  1  0  0  0  0  0  0  0  0
   -0.7870    2.6685    1.2500 H   0  0  0  1  0  0  0  0  0  0  0  0
   -1.7287    1.1589    1.3106 H   0  0  0  1  0  0  0  0  0  0  0  0
   -0.0156   -0.0042    0.0024 H   0  0  0  1  0  0  0  0  0  0  0  0
    3.0957    1.6183    1.0708 H   0  0  0  1  0  0  0  0  0  0  0  0
    2.1743    0.0978    1.1632 H   0  0  0  1  0  0  0  0  0  0  0  0
    1.9596    1.3319    3.2826 H   0  0  0  1  0  0  0  0  0  0  0  0
    1.3795    2.7701    2.4083 H   0  0  0  1  0  0  0  0  0  0  0  0
   -0.6921    2.6810   -1.2703 H   0  0  0  1  0  0  0  0  0  0  0  0
   -1.8001    1.2907   -1.1766 H   0  0  0  1  0  0  0  0  0  0  0  0
   -2.2785    2.4237   -6.9093 H   0  0  0  1  0  0  0  0  0  0  0  0
   -0.3263    0.8684   -6.9223 H   0  0  0  1  0  0  0  0  0  0  0  0
    0.6896    0.2063   -4.7435 H   0  0  0  1  0  0  0  0  0  0  0  0
    2.5294    1.4920    7.0844 H   0  0  0  1  0  0  0  0  0  0  0  0
   -1.2359   -0.8089    4.8092 H   0  0  0  1  0  0  0  0  0  0  0  0
    2.4929   -0.8678    8.7570 H   0  0  0  1  0  0  0  0  0  0  0  0
    1.0490   -3.0399    8.8112 H   0  0  0  1  0  0  0  0  0  0  0  0
   -0.7175   -2.9479    6.8830 H   0  0  0  1  0  0  0  0  0  0  0  0
  1 18  1  0  0  0  0
  1 22  2  0  0  0  0
  1 26  1  0  0  0  0
  2  3  1  0  0  0  0
  2 22  1  0  0  0  0
  2 27  1  0  0  0  0
  2 28  1  0  0  0  0
  3  4  1  0  0  0  0
  3  8  1  0  0  0  0
  4  5  1  0  0  0  0
  4 29  1  0  0  0  0
  4 30  1  0  0  0  0
  5  6  1  0  0  0  0
  5  9  1  0  0  0  0
  5 31  1  0  0  0  0
  6  7  1  0  0  0  0
  7  8  1  0  0  0  0
  7 32  1  0  0  0  0
  7 33  1  0  0  0  0
  8 34  1  0  0  0  0
  8 35  1  0  0  0  0
  9 10  1  0  0  0  0
  9 36  1  0  0  0  0
  9 37  1  0  0  0  0
 10 11  1  0  0  0  0
 11 12  2  0  0  0  0
 11 16  1  0  0  0  0
 12 13  1  0  0  0  0
 13 14  2  0  0  0  0
 13 17  1  0  0  0  0
 14 15  1  0  0  0  0
 14 38  1  0  0  0  0
 15 16  2  0  0  0  0
 15 39  1  0  0  0  0
 16 40  1  0  0  0  0
 18 19  2  0  0  0  0
 18 41  1  0  0  0  0
 19 20  1  0  0  0  0
 19 23  1  0  0  0  0
 20 21  2  0  0  0  0
 20 25  1  0  0  0  0
 21 22  1  0  0  0  0
 21 42  1  0  0  0  0
 23 24  1  0  0  0  0
 23 43  1  0  0  0  0
 24 25  2  0  0  0  0
 24 44  1  0  0  0  0
 25 45  1  0  0  0  0
M  END
$$$$
